*salam man be to yar ghadimi
R1 0 1 1
I1 0 1 5m
dv 1m
dt 1m
di 1m
.tran 100m
END