V1 3 0 5 0 0 0
R1 0 1 2k
C1 1 2 3m
L1 2 3 6m
dt 1m
dv 50m
di 1m
.tran 1000m