*salam man be to yar ghadimi
R1 0 1 4
I1 0 1 8 0 1 1
dv 0.1m
dt 1
di 1m
.tran 10