*salam man be to yar ghadimi
R1 0 1 1
C1 0 1 5m
dv 0.1m
dt 1m
di 1m
.tran 100m