V1 0 1 2 0 0 0
R1 1 2 1k
C1 2 0 1u
dv 0.01
di 0.01
dt 0.01
.tran 10