*salam man be to yar ghadimi
R1 0 1 1
R5 3 9 4
L1 1 0 6m
C1 0 1 5m
V1 1 3 8 0 0 0
E1 1 7 2 1 6
R4 7 9 9
R3 0 3 1
R2 3 1 6
R6 1 3 8
*
*
V2 9 10 3 4 5 6
L2 9 10 8
I1 10 11 8 0 0 0
D1 10 11 1
F1 11 5 C1 5
L3 3 5 8m
C3 5 3 9m
R7 5 0 7m
D2 5 0 1
dv 0.1m
dt 1m
di 1m
.tran 100m